@<TRIPOS>MOLECULE
cpa+sub.xyz
 134 143 0 0 0
SMALL
GASTEIGER

@<TRIPOS>ATOM
      1 C         -14.0554    4.5576    0.7857 C.ar    1  UNL1       -0.0612
      2 C         -14.0756    3.5617    1.7991 C.ar    1  UNL1       -0.0611
      3 C         -13.4568    2.3390    1.5948 C.ar    1  UNL1       -0.0533
      4 C         -12.7863    2.0516    0.3711 C.ar    1  UNL1       -0.0065
      5 C         -12.7665    3.0620   -0.6609 C.ar    1  UNL1       -0.0165
      6 C         -13.4136    4.3082   -0.4175 C.ar    1  UNL1       -0.0540
      7 C         -12.1450    0.7906    0.1199 C.ar    1  UNL1        0.0366
      8 C         -11.4458    0.6369   -1.0737 C.ar    1  UNL1        0.1448
      9 C         -11.4720    1.5860   -2.1379 C.ar    1  UNL1        0.0259
     10 C         -12.1319    2.7848   -1.9085 C.ar    1  UNL1       -0.0427
     11 C         -12.3016   -0.3912    1.0179 C.ar    1  UNL1        0.0366
     12 C         -13.6106   -0.9401    1.2844 C.ar    1  UNL1       -0.0065
     13 C         -13.7310   -2.0567    2.1901 C.ar    1  UNL1       -0.0165
     14 C         -12.5620   -2.5740    2.8123 C.ar    1  UNL1       -0.0427
     15 C         -11.2974   -2.1252    2.4705 C.ar    1  UNL1        0.0259
     16 C         -11.1852   -1.0842    1.5008 C.ar    1  UNL1        0.1448
     17 C         -14.7900   -0.5053    0.6037 C.ar    1  UNL1       -0.0533
     18 C         -16.0123   -1.1220    0.8216 C.ar    1  UNL1       -0.0611
     19 C         -16.1311   -2.1950    1.7428 C.ar    1  UNL1       -0.0612
     20 C         -15.0083   -2.6485    2.4136 C.ar    1  UNL1       -0.0540
     21 C         -10.9006    1.1882   -3.4645 C.ar    1  UNL1       -0.0085
     22 C         -10.0843   -2.6681    3.1481 C.ar    1  UNL1       -0.0085
     23 O          -9.9258   -0.7670    1.0263 O.3     1  UNL1       -0.4318
     24 O         -10.9110   -0.6047   -1.3685 O.3     1  UNL1       -0.4318
     25 C          -9.7067    1.7760   -3.9460 C.ar    1  UNL1       -0.0421
     26 C          -9.1549    1.3328   -5.1565 C.ar    1  UNL1       -0.0553
     27 C          -9.7366    0.2914   -5.8961 C.ar    1  UNL1       -0.0499
     28 C         -10.9333   -0.2612   -5.4198 C.ar    1  UNL1       -0.0553
     29 C         -11.5355    0.1711   -4.2254 C.ar    1  UNL1       -0.0421
     30 C          -9.5144   -1.9120    4.1977 C.ar    1  UNL1       -0.0421
     31 C          -8.3710   -2.4020    4.8527 C.ar    1  UNL1       -0.0553
     32 C          -7.8210   -3.6507    4.5148 C.ar    1  UNL1       -0.0499
     33 C          -8.4526   -4.4116    3.5183 C.ar    1  UNL1       -0.0553
     34 C          -9.5647   -3.9359    2.8030 C.ar    1  UNL1       -0.0421
     35 P          -9.5618   -1.1588   -0.5824 P.3     1  UNL1        0.3265
     36 O          -9.5027   -2.6310   -0.8554 O.3     1  UNL1       -0.4172
     37 O          -8.3797   -0.2329   -0.8630 O.2     1  UNL1       -0.4990
     38 C         -10.1865   -0.6289    4.6381 C.3     1  UNL1       -0.0391
     39 C          -6.8123   -4.2301   -0.4782 C.ar    2  UNL2       -0.0560
     40 H          -5.3092   -7.7142    0.4317 H       2  UNL2        0.0618
     41 C         -10.1708   -4.7480    1.6775 C.3     1  UNL1       -0.0391
     42 C          -5.0034   -0.3338   -4.0596 C.ar    2  UNL2       -0.0606
     43 C          -5.9089   -0.8475    1.1391 C.ar    3  UNL3        0.0396
     44 C          -8.9716    2.8155   -3.1303 C.3     1  UNL1       -0.0391
     45 C          -8.6757    2.3434    0.7176 C.ar    3  UNL3       -0.0530
     46 C          -9.0572   -0.2393   -7.1397 C.3     1  UNL1       -0.0397
     47 C         -12.8305   -0.4832   -3.7812 C.3     1  UNL1       -0.0391
     48 H          -2.0161   -4.1143    2.1442 H       3  UNL3        0.0660
     49 C          -5.4005   -1.0229   -0.1729 C.ar    3  UNL3       -0.0349
     50 H          -5.6842   -7.0954   -1.9496 H       2  UNL2        0.0621
     51 H          -5.9304   -6.1008    2.2486 H       2  UNL2        0.0618
     52 H          -7.2435   -3.2628   -0.7118 H       2  UNL2        0.0621
     53 H          -8.3002   -0.9567   -3.3502 H       2  UNL2        0.0636
     54 C          -6.5664   -4.1756    5.1820 C.3     1  UNL1       -0.0397
     55 C          -6.0772   -5.8334    1.2004 C.ar    2  UNL2       -0.0617
     56 H         -11.1760   -0.8461    5.0702 H       1  UNL1        0.0278
     57 H          -9.5915   -0.0998    5.3951 H       1  UNL1        0.0278
     58 C          -6.4866   -5.1362   -1.4968 C.ar    2  UNL2       -0.0170
     59 C          -5.9445   -6.3914   -1.1559 C.ar    2  UNL2       -0.0560
     60 C          -3.8464   -2.6945    0.6469 C.ar    3  UNL3        0.1202
     61 C          -4.3757   -2.5546    1.9468 C.ar    3  UNL3       -0.0180
     62 C          -5.4102   -1.6441    2.1893 C.ar    3  UNL3       -0.0349
     63 O          -2.8636   -3.5664    0.2962 O.3     3  UNL3       -0.4951
     64 C          -6.6701    0.7952    3.5952 C.3     3  UNL3       -0.0239
     65 C          -2.4740   -4.5655    1.2480 C.3     3  UNL3        0.0788
     66 H         -10.8155    3.5948    3.7195 H       3  UNL3        0.0618
     67 H         -11.2862    4.4227    1.4118 H       3  UNL3        0.0618
     68 N          -6.9601    0.0968    1.2514 N.2     3  UNL3       -0.3581
     69 H          -9.9111    3.6092   -0.4989 H       3  UNL3        0.0618
     70 H         -14.5531    5.5135    0.9530 H       1  UNL1        0.0618
     71 H         -14.5864    3.7585    2.7425 H       1  UNL1        0.0618
     72 H         -13.4817    1.5696    2.3647 H       1  UNL1        0.0624
     73 H         -13.4000    5.0623   -1.2068 H       1  UNL1        0.0624
     74 H         -12.2017    3.5172   -2.7149 H       1  UNL1        0.0631
     75 H         -12.6635   -3.3819    3.5393 H       1  UNL1        0.0631
     76 H         -14.7194    0.2973   -0.1276 H       1  UNL1        0.0624
     77 H         -16.8903   -0.7870    0.2671 H       1  UNL1        0.0618
     78 H         -17.0993   -2.6706    1.9046 H       1  UNL1        0.0618
     79 H         -15.0783   -3.4916    3.1039 H       1  UNL1        0.0624
     80 H          -8.2274    1.7848   -5.5135 H       1  UNL1        0.0623
     81 H         -11.4116   -1.0638   -5.9865 H       1  UNL1        0.0623
     82 H          -7.9308   -1.8233    5.6697 H       1  UNL1        0.0623
     83 H          -8.0501   -5.3930    3.2624 H       1  UNL1        0.0623
     84 H          -7.5848    0.0728    0.3506 H       3  UNL3        0.1656
     85 C          -6.6208   -4.5881    0.8610 C.ar    2  UNL2       -0.0614
     86 H         -10.3646    0.0450    3.7903 H       1  UNL1        0.0278
     87 C          -5.7299   -6.7385    0.1823 C.ar    2  UNL2       -0.0614
     88 C          -5.3913   -2.7062   -3.8177 C.ar    2  UNL2        0.0308
     89 H         -10.1430   -4.1762    0.7386 H       1  UNL1        0.0278
     90 H          -9.6180   -5.6840    1.5270 H       1  UNL1        0.0278
     91 H         -11.2244   -4.9926    1.8794 H       1  UNL1        0.0278
     92 H          -4.0079   -2.0839   -1.4232 H       3  UNL3        0.0655
     93 C          -4.3717   -1.9220   -0.4113 C.ar    3  UNL3       -0.0180
     94 H          -4.3259    0.4990   -4.2514 H       2  UNL2        0.0618
     95 H          -6.7512    0.9172   -3.7942 H       2  UNL2        0.0618
     96 H          -6.3063   -3.5975    6.0794 H       1  UNL1        0.0278
     97 H          -6.6822   -5.2294    5.4760 H       1  UNL1        0.0278
     98 H          -5.7085   -4.1298    4.4907 H       1  UNL1        0.0278
     99 C          -9.6921    3.2730    0.5111 C.ar    3  UNL3       -0.0611
    100 C          -8.4037    1.8502    2.0162 C.ar    3  UNL3       -0.0061
    101 C          -9.1724    2.3405    3.0999 C.ar    3  UNL3       -0.0530
    102 C          -7.3339    0.8706    2.2488 C.2     3  UNL3        0.0204
    103 H          -8.7557    0.5765   -7.8136 H       1  UNL1        0.0278
    104 H          -8.1441   -0.7908   -6.8659 H       1  UNL1        0.0278
    105 H          -9.7101   -0.9236   -7.6984 H       1  UNL1        0.0278
    106 H          -4.0381   -3.1926    2.7594 H       3  UNL3        0.0655
    107 H          -3.3381   -5.1839    1.5360 H       3  UNL3        0.0660
    108 C         -10.2029    3.2588    2.8830 C.ar    3  UNL3       -0.0611
    109 C         -10.4661    3.7286    1.5880 C.ar    3  UNL3       -0.0617
    110 H          -8.6206    2.3585   -2.1959 H       1  UNL1        0.0278
    111 H          -8.0997    3.2025   -3.6736 H       1  UNL1        0.0278
    112 H          -9.6158    3.6653   -2.8659 H       1  UNL1        0.0278
    113 S          -5.0286   -4.4461   -3.8140 S.3     2  UNL2       -0.0963
    114 C          -4.5104   -1.6535   -4.0782 C.ar    2  UNL2       -0.0465
    115 N          -7.5037   -3.6232   -3.2682 N.pl3   2  UNL2       -0.3273
    116 C          -6.6876   -4.8040   -2.9697 C.3     2  UNL2        0.0973
    117 H          -3.4589   -1.8551   -4.2840 H       2  UNL2        0.0629
    118 H          -8.3062   -3.4892   -2.6494 H       2  UNL2        0.1475
    119 C          -6.3631   -0.1000   -3.8057 C.ar    2  UNL2       -0.0600
    120 C          -7.2524   -1.1580   -3.5525 C.ar    2  UNL2       -0.0397
    121 C          -6.7567   -2.4691   -3.5252 C.ar    2  UNL2        0.0418
    122 H          -5.8847   -1.6394    3.1661 H       3  UNL3        0.0639
    123 H          -1.7313   -5.1865    0.7360 H       3  UNL3        0.0660
    124 H         -13.5326    0.2481   -3.3571 H       1  UNL1        0.0278
    125 H         -13.3246   -0.9815   -4.6265 H       1  UNL1        0.0278
    126 H          -7.0931   -5.6870   -3.4872 H       2  UNL2        0.0668
    127 H         -12.6390   -1.2398   -3.0066 H       1  UNL1        0.0278
    128 H          -8.0915    1.9967   -0.1287 H       3  UNL3        0.0624
    129 H          -8.9968    1.9678    4.1065 H       3  UNL3        0.0624
    130 H          -6.7735    1.7418    4.1337 H       3  UNL3        0.0292
    131 H          -7.1360   -0.0060    4.1892 H       3  UNL3        0.0292
    132 H          -5.6050    0.5555    3.4868 H       3  UNL3        0.0292
    133 H          -5.8430   -0.4795   -1.0069 H       3  UNL3        0.0639
    134 H          -6.9044   -3.8839    1.6358 H       2  UNL2        0.0618
@<TRIPOS>BOND
     1   103    46    1
     2   105    46    1
     3    46   104    1
     4    46    27    1
     5    81    28    1
     6    27    28   ar
     7    27    26   ar
     8    80    26    1
     9    28    29   ar
    10    26    25   ar
    11   125    47    1
    12   117   114    1
    13    94    42    1
    14    29    47    1
    15    29    21   ar
    16   114    42   ar
    17   114    88   ar
    18    42   119   ar
    19    25    21   ar
    20    25    44    1
    21    88   113    1
    22    88   121   ar
    23   113   116    1
    24   119    95    1
    25   119   120   ar
    26    47   124    1
    27    47   127    1
    28   111    44    1
    29   120   121   ar
    30   120    53    1
    31   121   115    1
    32   126   116    1
    33    21     9    1
    34   115   116    1
    35   115   118    1
    36    44   112    1
    37    44   110    1
    38   116    58    1
    39    74    10    1
    40     9    10   ar
    41     9     8   ar
    42    50    59    1
    43    10     5   ar
    44    58    59   ar
    45    58    39   ar
    46    92    93    1
    47    24     8    1
    48    24    35    1
    49    73     6    1
    50    59    87   ar
    51     8     7   ar
    52   133    49    1
    53    37    35    2
    54    36    35    1
    55    52    39    1
    56     5     6   ar
    57     5     4   ar
    58    35    23    1
    59    69    99    1
    60    39    85   ar
    61     6     1   ar
    62    93    49   ar
    63    93    60   ar
    64    49    43   ar
    65   128    45    1
    66    76    17    1
    67     7     4   ar
    68     7    11    1
    69    87    40    1
    70    87    55   ar
    71    77    18    1
    72    63    60    1
    73    63    65    1
    74    84    68    1
    75     4     3   ar
    76    99    45   ar
    77    99   109   ar
    78    17    18   ar
    79    17    12   ar
    80    60    61   ar
    81    45   100   ar
    82   123    65    1
    83    89    41    1
    84     1    70    1
    85     1     2   ar
    86    18    19   ar
    87    85    55   ar
    88    85   134    1
    89    11    12   ar
    90    11    16   ar
    91    23    16    1
    92    43    68    1
    93    43    62   ar
    94    55    51    1
    95    65   107    1
    96    65    48    1
    97    68   102    2
    98    12    13   ar
    99    67   109    1
   100    16    15   ar
   101    90    41    1
   102   109   108   ar
   103     3     2   ar
   104     3    72    1
   105    41    91    1
   106    41    34    1
   107    19    78    1
   108    19    20   ar
   109     2    71    1
   110    61    62   ar
   111    61   106    1
   112   100   102    1
   113   100   101   ar
   114    62   122    1
   115    13    20   ar
   116    13    14   ar
   117   102    64    1
   118    20    79    1
   119    15    14   ar
   120    15    22    1
   121    34    22   ar
   122    34    33   ar
   123    14    75    1
   124   108   101   ar
   125   108    66    1
   126   101   129    1
   127    22    30   ar
   128    83    33    1
   129   132    64    1
   130    33    32   ar
   131    64   130    1
   132    64   131    1
   133    86    38    1
   134    30    38    1
   135    30    31   ar
   136    98    54    1
   137    32    31   ar
   138    32    54    1
   139    38    56    1
   140    38    57    1
   141    31    82    1
   142    54    97    1
   143    54    96    1
